LTspice 24.0.12 for Windows
Circuit: * C:\Users\bhure\Documents\LTspice\Draft4.asc
Start Time: Fri Oct  4 20:03:16 2024
Error on line 2 : r1 n002 n001 50 ohm
	 Unknown parameter "ohm"
Error on line 3 : r2 n003 n002 100 ohm
	 Unknown parameter "ohm"
Error on line 4 : r3 0 n003 150 ohm
	 Unknown parameter "ohm"
Error on line 5 : v1 n001 0 220 volts
	 Unknown parameter "volts"
solver = Normal
Maximum thread count: 12
tnom = 27
temp = 27
method = modified trap
Direct Newton iteration for .op point succeeded.
Total elapsed time: 0.167 seconds.

