LTspice 24.0.12 for Windows
Circuit: * C:\Users\bhure\Documents\LTspice\Draft2.asc
Start Time: Sun Oct  6 18:04:04 2024
Error on line 2 : r1 n002 n001 50 ohm
	 Unknown parameter "ohm"
Error on line 3 : r2 0 n002 25 ohm
	 Unknown parameter "ohm"
Error on line 4 : r3 n002 0 40 ohm
	 Unknown parameter "ohm"
Error on line 5 : v1 n001 0 200 volts
	 Unknown parameter "volts"
solver = Normal
Maximum thread count: 12
tnom = 27
temp = 27
method = modified trap
Direct Newton iteration for .op point succeeded.
Total elapsed time: 0.134 seconds.

